REMARK SMILES O=CC(=O)O
REMARK SMILES IDX 4 1 3 2 5 3 2 5 1 6
REMARK H PARENT 5 4
REMARK Flexibility Score: inf
ROOT
ATOM      1  O   UNL     1      -1.606  -0.632  -0.002  1.00  0.00    -0.243 OA
ATOM      2  C   UNL     1      -0.564  -0.011   0.003  1.00  0.00     0.368 C 
ENDROOT
BRANCH   2   3
ATOM      3  O   UNL     1      -0.385   1.316   0.000  1.00  0.00    -0.476 OA
ATOM      4  H   UNL     1      -1.235   1.806  -0.004  1.00  0.00     0.297 HD
ENDBRANCH   2   3
BRANCH   2   5
ATOM      5  C   UNL     1       0.773  -0.679   0.002  1.00  0.00     0.344 C 
ATOM      6  O   UNL     1       1.781   0.006  -0.002  1.00  0.00    -0.290 OA
ENDBRANCH   2   5
TORSDOF 2
