REMARK SMILES [CH-2]c1c(COP(=O)(O)O)cnc(C)c1O
REMARK SMILES IDX 4 1 5 2 6 3 7 4 8 5 9 7 3 9 10 10 2 11 11 12 14 13 1 14
REMARK SMILES IDX 12 15 13 16 15 17
REMARK H PARENT 8 6 9 8 15 18
REMARK Flexibility Score: inf
ROOT
ATOM      1  C   UNL     1      -0.646   0.758  -0.022  1.00  0.00     0.070 C 
ENDROOT
BRANCH   1   2
ATOM      2  O   UNL     1      -1.593  -0.313  -0.022  1.00  0.00    -0.306 OA
BRANCH   2   3
ATOM      3  P   UNL     1      -3.185  -0.076  -0.038  1.00  0.00     0.468 P 
ATOM      4  O   UNL     1      -3.545   0.779  -1.190  1.00  0.00    -0.228 OA
BRANCH   3   5
ATOM      5  O   UNL     1      -3.633   0.647   1.329  1.00  0.00    -0.303 OA
ATOM      6  H   UNL     1      -3.427   0.142   2.127  1.00  0.00     0.223 HD
ENDBRANCH   3   5
BRANCH   3   7
ATOM      7  O   UNL     1      -3.937  -1.494  -0.166  1.00  0.00    -0.303 OA
ATOM      8  H   UNL     1      -4.902  -1.427  -0.181  1.00  0.00     0.223 HD
ENDBRANCH   3   7
ENDBRANCH   2   3
ENDBRANCH   1   2
BRANCH   1   9
ATOM      9  C   UNL     1       0.751   0.193  -0.006  1.00  0.00    -0.219 A 
ATOM     10  C   UNL     1       0.956  -1.152   0.005  1.00  0.00    -0.022 A 
ATOM     11  C   UNL     1       1.882   1.057  -0.009  1.00  0.00    -0.326 A 
ATOM     12  N   UNL     1       2.172  -1.671   0.019  1.00  0.00    -0.308 NA
ATOM     13  C   UNL     1       3.210   0.428   0.013  1.00  0.00    -0.088 A 
ATOM     14  C   UNL     1       1.737   2.433  -0.021  1.00  0.00    -0.520 C 
ATOM     15  C   UNL     1       3.277  -0.932   0.023  1.00  0.00    -0.034 A 
ATOM     16  C   UNL     1       4.623  -1.609   0.039  1.00  0.00     0.041 C 
BRANCH  13  17
ATOM     17  O   UNL     1       4.342   1.185   0.017  1.00  0.00    -0.620 OA
ATOM     18  H   UNL     1       4.677   1.397  -0.865  1.00  0.00     0.252 HD
ENDBRANCH  13  17
ENDBRANCH   1   9
TORSDOF 6
